8
Lattice="5.44 0.0 0.0 0.0 5.44 0.0 0.0 0.0 5.44" Properties="species:S:1:pos:R:3:vel:R:3:select:I:1:test:L:1" Time=0.0
Si        0.00000000      0.00000000      0.00000000      0.00000000      0.00000000      0.00000000       1    T
Si        1.36000000      1.36000000      1.36000000      0.00000000      0.00000000      0.00000000       1    True
Si        2.72000000      2.72000000      0.00000000      0.00000000      0.00000000      0.00000000       1    true
Si        4.08000000      4.08000000      1.36000000      0.00000000      0.00000000      0.00000000       1    T
Si        2.72000000      0.00000000      2.72000000      0.00000000      0.00000000      0.00000000       1    F
Si        4.08000000      1.36000000      4.08000000      0.00000000      0.00000000      0.00000000       1    False
Si        0.00000000      2.72000000      2.72000000      0.00000000      0.00000000      0.00000000       1    false
Si        1.36000000      4.08000000      4.08000000      0.00000000      0.00000000      0.00000000       1    F
